
FoamFile
{
    version 2.0;
    format ascii;
    class dictionary;
    location "constant/fluid";
    object thermophysicalProperties;
}
thermoType
{
    type            heRhoThermo;
    mixture         pureMixture;
    transport       const;
    thermo          hConst;
    equationOfState perfectGas;
    specie          specie;
    energy          sensibleEnthalpy;
}
mixture
{
    specie
    {
        molWeight   28.96;
    }
    thermodynamics
    {
        Cp          2;
        Hf          0;
    }
    transport
    {
        mu          1.8e-5;
        Pr          0.7;
        kappa       2.5;
    }
}
