/*--------------------------------*- C++ -*----------------------------------*\
| =========                 |                                                 |
| \\      /  F ield         | OpenFOAM: The Open Source CFD Toolbox           |
|  \\    /   O peration     | Version:  2506                                  |
|   \\  /    A nd           | Website:  www.openfoam.com                      |
|    \\/     M anipulation  |                                                 |
\*---------------------------------------------------------------------------*/
FoamFile
{
    version     2.0;
    format      binary;
    arch        "LSB;label=32;scalar=64";
    class       polyBoundaryMesh;
    location    "constant/component_3/polyMesh";
    object      boundary;
}
// * * * * * * * * * * * * * * * * * * * * * * * * * * * * * * * * * * * * * //

3
(
    empty
    {
        type            empty;
        physicalType    patch;
        inGroups        1(empty);
        nFaces          670;
        startFace       596;
    }
    component_3_to_pcb
    {
        type            mappedWall;
        inGroups        1(wall);
        nFaces          66;
        startFace       1266;
        sampleMode      nearestPatchFace;
        sampleRegion    pcb;
        samplePatch     pcb_to_component_3;
    }
    component_3_to_fluid
    {
        type            mappedWall;
        inGroups        1(wall);
        nFaces          78;
        startFace       1332;
        sampleMode      nearestPatchFace;
        sampleRegion    fluid;
        samplePatch     fluid_to_component_3;
    }
)

// ************************************************************************* //
