
FoamFile
{
    version     2.0;
    format      ascii;
    class       volScalarField;
    object      epsilon;
}

dimensions      [0 2 -3 0 0 0 0];

internalField   uniform 10;

boundaryField
{
    inlet
    {
        type            inletOutlet;
        inletValue      uniform 0.0375;
        value           uniform 0.0375;
    }
    outlet
    {
        type            inletOutlet;
        inletValue      uniform 0.0375;
        value           uniform 0.0375;
    }
    empty
    {
        type            empty;
        value           $internalField;
    }
    walls
    {
        type            epsilonWallFunction;
        value           $internalField;
    }
    fluid_to_pcb
    {
        type            epsilonWallFunction;
        value           $internalField;
    }
    "fluid_to_component.*"
    {
        type            epsilonWallFunction;
        value           $internalField;
    }
    "fluid_to_heatsink.*"
    {
        type            mappedFixedInternalValue;
        value           $internalField;
    }
}
