
FoamFile
{
    version     2.0;
    format      ascii;
    class       volScalarField;
    object      k;
}

dimensions      [0 2 -2 0 0 0 0];

internalField   uniform 0.5;

boundaryField
{
    inlet
    {
        type            inletOutlet;
        inletValue      uniform 0.00375;
        value           uniform 0.00375;
    }
    outlet
    {
        type            inletOutlet;
        inletValue      uniform 0.00375;
        value           uniform 0.00375;
    }
    empty
    {
        type            empty;
        value           $internalField;
    }
    walls
    {
        type            kqRWallFunction;
        value           $internalField;
    }
    "fluid_to_component.*"
    {
        type            kqRWallFunction;
        value           $internalField;
    }
    "fluid_to_heatsink.*"
    {
	type		mappedFixedInternalValue;
	value 		$internalField;
    }
    fluid_to_pcb
    {
        type            kqRWallFunction;
        value           $internalField;
    }
}
