
FoamFile
{
    version 2.0;
    format ascii;
    class volVectorField;
    location "0/fluid";
    object U;
}
dimensions      [0 1 -1 0 0 0 0];
internalField   uniform (10 0 0);
boundaryField
{
    inlet
    {
        type fixedValue;
        value $internalField;
    }
    outlet
    {
        type zeroGradient;
    }
    walls
    {
        type noSlip;
    }
    empty
    {
        type empty;
    }
    "fluid_to_component.*"
    {
        type            fixedValue;
        value           uniform (0 0 0);
    }
    fluid_to_pcb
    {
        type            fixedValue;
        value           uniform (0 0 0);
    }
    "fluid_to_heatsink.*"
    {
        type            mappedFixedInternalValue;
        value $internalField;
    }
}
