
FoamFile
{
    version     2.0;
    format      ascii;
    class       dictionary;
    location    "system";
    object      fvSchemes;
}
// * * * * * * * * * * * * * * * * * * * * * * * * * * * * * * * * * * * * * //

ddtSchemes
{
}

divSchemes
{
}

laplacianSchemes
{
}

interpolationSchemes
{
}

snGradSchemes
{
}

gradSchemes
{
}
