/*--------------------------------*- C++ -*----------------------------------*\
| =========                 |                                                 |
| \\      /  F ield         | OpenFOAM: The Open Source CFD Toolbox           |
|  \\    /   O peration     | Version:  2506                                  |
|   \\  /    A nd           | Website:  www.openfoam.com                      |
|    \\/     M anipulation  |                                                 |
\*---------------------------------------------------------------------------*/
FoamFile
{
    version     2.0;
    format      binary;
    arch        "LSB;label=32;scalar=64";
    class       polyBoundaryMesh;
    location    "constant/fluid/polyMesh";
    object      boundary;
}
// * * * * * * * * * * * * * * * * * * * * * * * * * * * * * * * * * * * * * //

10
(
    empty
    {
        type            empty;
        physicalType    patch;
        inGroups        1(empty);
        nFaces          6518;
        startFace       6117;
    }
    walls
    {
        type            wall;
        physicalType    patch;
        inGroups        1(wall);
        nFaces          400;
        startFace       12635;
    }
    inlet
    {
        type            patch;
        physicalType    patch;
        nFaces          18;
        startFace       13035;
    }
    outlet
    {
        type            patch;
        physicalType    patch;
        nFaces          18;
        startFace       13053;
    }
    fluid_to_pcb
    {
        type            mappedWall;
        inGroups        1(wall);
        nFaces          190;
        startFace       13071;
        sampleMode      nearestPatchFace;
        sampleRegion    pcb;
        samplePatch     pcb_to_fluid;
    }
    fluid_to_component_1
    {
        type            mappedWall;
        inGroups        1(wall);
        nFaces          16;
        startFace       13261;
        sampleMode      nearestPatchFace;
        sampleRegion    component_1;
        samplePatch     component_1_to_fluid;
    }
    fluid_to_component_3
    {
        type            mappedWall;
        inGroups        1(wall);
        nFaces          38;
        startFace       13277;
        sampleMode      nearestPatchFace;
        sampleRegion    component_3;
        samplePatch     component_3_to_fluid;
    }
    fluid_to_component_2
    {
        type            mappedWall;
        inGroups        1(wall);
        nFaces          44;
        startFace       13315;
        sampleMode      nearestPatchFace;
        sampleRegion    component_2;
        samplePatch     component_2_to_fluid;
    }
    fluid_to_component_0
    {
        type            mappedWall;
        inGroups        1(wall);
        nFaces          64;
        startFace       13359;
        sampleMode      nearestPatchFace;
        sampleRegion    component_0;
        samplePatch     component_0_to_fluid;
    }
    fluid_to_component_4
    {
        type            mappedWall;
        inGroups        1(wall);
        nFaces          12;
        startFace       13423;
        sampleMode      nearestPatchFace;
        sampleRegion    component_4;
        samplePatch     component_4_to_fluid;
    }
)

// ************************************************************************* //
