/*--------------------------------*- C++ -*----------------------------------*\
| =========                 |                                                 |
| \\      /  F ield         | OpenFOAM: The Open Source CFD Toolbox           |
|  \\    /   O peration     | Version:  2506                                  |
|   \\  /    A nd           | Website:  www.openfoam.com                      |
|    \\/     M anipulation  |                                                 |
\*---------------------------------------------------------------------------*/
FoamFile
{
    version     2.0;
    format      binary;
    arch        "LSB;label=32;scalar=64";
    class       polyBoundaryMesh;
    location    "constant/polyMesh";
    object      boundary;
}
// * * * * * * * * * * * * * * * * * * * * * * * * * * * * * * * * * * * * * //


4
(
    empty
    {
        type            empty;
        physicalType    patch;
        nFaces          23812;
        startFace       23560;
    }

    walls
    {
        type            wall;
        physicalType    patch;
        nFaces          384;
        startFace       47372;
    }

    inlet
    {
        type            patch;
        physicalType    patch;
        nFaces          58;
        startFace       47756;
    }

    outlet
    {
        type            patch;
        physicalType    patch;
        nFaces          58;
        startFace       47814;
    }

)


// ************************************************************************* //
