
FoamFile
{
    version 2.0;
    format ascii;
    class volScalarField;
    location "0/component_0";
    object T;
}
dimensions      [0 0 0 1 0 0 0];
internalField   uniform 300;
boundaryField
{
    "(inlet|outlet)"
    {
        type zeroGradient;
    }
    walls
    {
        type zeroGradient; // contatto fluido-solido gestito da interfaccia cht
    }
    empty
    {
        type empty;
    }

    "component.*_to_.*"
    {
        type            compressible::turbulentTemperatureRadCoupledMixed;
        qrNbr           none;
        qr              none;
        Tnbr            T;
        kappaMethod     solidThermo;
        useImplicit     true;
        value           $internalField;

    }
}
