/*--------------------------------*- C++ -*----------------------------------*\
| =========                 |                                                 |
| \\      /  F ield         | OpenFOAM: The Open Source CFD Toolbox           |
|  \\    /   O peration     | Version:  2506                                  |
|   \\  /    A nd           | Website:  www.openfoam.com                      |
|    \\/     M anipulation  |                                                 |
\*---------------------------------------------------------------------------*/
FoamFile
{
    version     2.0;
    format      ascii;
    class       volScalarField;
    object      alphat;
}
// * * * * * * * * * * * * * * * * * * * * * * * * * * * * * * * * * * * * * //

dimensions      [0 2 -3 0 0 0 0];

internalField   uniform 10;

boundaryField
{
    empty
    {
        type            empty;
    }
    walls
    {
        type            epsilonWallFunction;
        value           $internalField;
    }
    inlet
    {
        type            fixedValue;
        value           $internalField;
    }
    outlet
    {
        type            inletOutlet;
        inletValue      uniform 0.0377336;
        value           uniform 0.0377336;
    }
    "fluid_to_component_.*"
    {
        type            epsilonWallFunction;
        value           $internalField;
    }
    fluid_to_pcb
    {
        type            epsilonWallFunction;
        value           $internalField;
    }
}


// ************************************************************************* //
