/*--------------------------------*- C++ -*----------------------------------*\
| =========                 |                                                 |
| \\      /  F ield         | OpenFOAM: The Open Source CFD Toolbox           |
|  \\    /   O peration     | Version:  2506                                  |
|   \\  /    A nd           | Website:  www.openfoam.com                      |
|    \\/     M anipulation  |                                                 |
\*---------------------------------------------------------------------------*/
FoamFile
{
    version     2.0;
    format      ascii;
    arch        "LSB;label=32;scalar=64";
    class       polyBoundaryMesh;
    location    "constant/pcb/polyMesh";
    object      boundary;
}
// * * * * * * * * * * * * * * * * * * * * * * * * * * * * * * * * * * * * * //

3
(
    empty
    {
        type            empty;
        physicalType    empty;
        inGroups        1(empty);
        nFaces          992;
        startFace       620;
    }
    pcb_to_component_0
    {
        type            mappedWall;
        inGroups        1(wall);
        nFaces          57;
        startFace       1612;
        sampleMode      nearestPatchFace;
        sampleRegion    component_0;
        samplePatch     component_0_to_pcb;
    }
    pcb_to_fluid
    {
        type            mappedWall;
        inGroups        1(wall);
        nFaces          191;
        startFace       1669;
        sampleMode      nearestPatchFace;
        sampleRegion    fluid;
        samplePatch     fluid_to_pcb;
    }
)

// ************************************************************************* //
